FoamFile
{
    version     2.0;
    format      ascii;
    class       dictionary;
    object      decomposeParDict;
}
// * * * * * * * * * * * * * * * * * * * * * * * * * * * * * * * * * * * * * //

#include "../simulation_settings.txt";

numberOfSubdomains $number_of_threads;

method          scotch;

coeffs
{
}
